Q1 N001 N002 N003 0 2N2222
R1 N001 N002 1k
R2 N002 0 1k
V1 N001 0 10
R3 0 N003 1k
.tran 0 5 0 1
.end
