D2 0 N003 1N914
D4 0 N002 1N914
R1 N001 0 1k
V1 N002 N003 SINE(0 5 1)
D1 N002 N001 1N914
D3 N003 N001 1N914
.tran 0 5 0 0.01
.end
