D1 N001 N002 D
V1 N001 0 5
D2 N002 N001 D
R1 N002 0 470
.tran 0 5 0 10m
.end