R N001 N002 1k
R N002 0 1k
I 0 N001 1mA
.tran 0 1 0 1