V1 N001 0 5
R1 N002 0 1k
D1 N001 N002 D
.tran 0 1 0 1
.end