L2 N001 N002 1m
R1 N002 0 1k
V1 N001 0 5
.tran 0 1 0 100m
.end
