V1 N001 0 5
L1 N002 0 10
R1 N002 N001 1k
.tran 0 5 0 1
.end
