C1 N002 N001 1m
R1 N002 0 1k
V1 N001 0 5
.tran 5 100
.end
