R1 N001 N002 1k
R2 N002 0 1k
V1 N001 0 5
R3 N003 0 1k
Q1 N001 N002 N003 0 NPN
.tran 0 5 0 1
.end
