R2 N001 N002 1k
R1 N002 0 1k
V1 N001 0 5
.tran 0 5 0 1m
.end
