C1 N002 0 10u
R1 N001 N002 1k
V1 N001 0 SINE(0 5 1)
.tran 0 3 0.01
.end
