C1 N002 0 10µ
R1 N002 N001 10k
V1 N001 0 SINE(2 3 1)
.tran 0 3 0 0.01
*.op
.end

